<?xml version="1.0" encoding="UTF-8"?>

<!-- generated on 2021-11-30 08:00:14 by Eclipse SUMO netconvert Version 1.11.0
<configuration xmlns:xsi="http://www.w3.org/2001/XMLSchema-instance" xsi:noNamespaceSchemaLocation="http://sumo.dlr.de/xsd/netconvertConfiguration.xsd">

    <input>
        <sumo-net-file value="roadnet1.net.xml"/>
    </input>

    <output>
        <plain-output-prefix value="plain"/>
    </output>

    <projection>
        <proj.plain-geo value="true"/>
    </projection>

    <processing>
        <geometry.min-radius.fix.railways value="false"/>
        <geometry.max-grade.fix value="false"/>
        <offset.disable-normalization value="true"/>
        <lefthand value="false"/>
    </processing>

    <junctions>
        <no-turnarounds value="true"/>
        <junctions.corner-detail value="5"/>
        <junctions.limit-turn-speed value="5.5"/>
        <rectangular-lane-cut value="false"/>
    </junctions>

    <pedestrian>
        <walkingareas value="false"/>
    </pedestrian>

    <report>
        <aggregate-warnings value="5"/>
    </report>

</configuration>
-->

<edges version="1.9" xmlns:xsi="http://www.w3.org/2001/XMLSchema-instance" xsi:noNamespaceSchemaLocation="http://sumo.dlr.de/xsd/edges_file.xsd">
    <edge id="-gneE0" from="gneJ1" to="gneJ0" priority="-1" numLanes="5" speed="13.89">
        <lane index="0" allow="pedestrian" width="2.00"/>
        <lane index="1" allow="bicycle" width="2.00"/>
        <lane index="2" disallow="pedestrian"/>
        <lane index="3" disallow="pedestrian"/>
        <lane index="4" disallow="pedestrian"/>
    </edge>
    <edge id="-gneE1" from="gneJ1" to="gneJ2" priority="-1" numLanes="5" speed="13.89">
        <lane index="0" allow="pedestrian" width="2.00"/>
        <lane index="1" allow="bicycle" width="2.00"/>
        <lane index="2" disallow="pedestrian"/>
        <lane index="3" disallow="pedestrian"/>
        <lane index="4" disallow="pedestrian"/>
    </edge>
    <edge id="-gneE10" from="gneJ3" to="gneJ8" priority="-1" numLanes="4" speed="13.89">
        <lane index="0" allow="pedestrian" width="2.00"/>
        <lane index="1" allow="bicycle" width="2.00"/>
        <lane index="2" disallow="pedestrian"/>
        <lane index="3" disallow="pedestrian"/>
    </edge>
    <edge id="-gneE15" from="gneJ4" to="gneJ6" priority="-1" numLanes="4" speed="13.89">
        <lane index="0" allow="pedestrian" width="2.00"/>
        <lane index="1" allow="bicycle" width="2.00"/>
        <lane index="2" disallow="pedestrian"/>
        <lane index="3" disallow="pedestrian"/>
    </edge>
    <edge id="-gneE16" from="gneJ0" to="gneJ13" priority="-1" numLanes="4" speed="13.89">
        <lane index="0" allow="pedestrian" width="2.00"/>
        <lane index="1" allow="bicycle" width="2.00"/>
        <lane index="2" disallow="pedestrian"/>
        <lane index="3" disallow="pedestrian"/>
    </edge>
    <edge id="-gneE17" from="gneJ13" to="gneJ3" priority="-1" numLanes="4" speed="13.89">
        <lane index="0" allow="pedestrian" width="2.00"/>
        <lane index="1" allow="bicycle" width="2.00"/>
        <lane index="2" disallow="pedestrian"/>
        <lane index="3" disallow="pedestrian"/>
    </edge>
    <edge id="-gneE2" from="gneJ1" to="gneJ3" priority="-1" numLanes="5" speed="13.89">
        <lane index="0" allow="pedestrian" width="2.00"/>
        <lane index="1" allow="bicycle" width="2.00"/>
        <lane index="2" disallow="pedestrian"/>
        <lane index="3" disallow="pedestrian"/>
        <lane index="4" disallow="pedestrian"/>
    </edge>
    <edge id="-gneE3" from="gneJ1" to="gneJ4" priority="-1" numLanes="5" speed="13.89">
        <lane index="0" allow="pedestrian" width="2.00"/>
        <lane index="1" allow="bicycle" width="2.00"/>
        <lane index="2" disallow="pedestrian"/>
        <lane index="3" disallow="pedestrian"/>
        <lane index="4" disallow="pedestrian"/>
    </edge>
    <edge id="-gneE4" from="gneJ0" to="gneJ5" priority="-1" numLanes="5" speed="13.89">
        <lane index="0" allow="pedestrian" width="2.00"/>
        <lane index="1" allow="bicycle" width="2.00"/>
        <lane index="2" disallow="pedestrian"/>
        <lane index="3" disallow="pedestrian"/>
        <lane index="4" disallow="pedestrian"/>
    </edge>
    <edge id="-gneE5" from="gneJ5" to="gneJ6" priority="-1" numLanes="4" speed="13.89">
        <lane index="0" allow="pedestrian" width="2.00"/>
        <lane index="1" allow="bicycle" width="2.00"/>
        <lane index="2" disallow="pedestrian"/>
        <lane index="3" disallow="pedestrian"/>
    </edge>
    <edge id="-gneE7" from="gneJ4" to="gneJ7" priority="-1" numLanes="4" speed="13.89">
        <lane index="0" allow="pedestrian" width="2.00"/>
        <lane index="1" allow="bicycle" width="2.00"/>
        <lane index="2" disallow="pedestrian"/>
        <lane index="3" disallow="pedestrian"/>
    </edge>
    <edge id="-gneE8" from="gneJ2" to="gneJ7" priority="-1" numLanes="4" speed="13.89">
        <lane index="0" allow="pedestrian" width="2.00"/>
        <lane index="1" allow="bicycle" width="2.00"/>
        <lane index="2" disallow="pedestrian"/>
        <lane index="3" disallow="pedestrian"/>
    </edge>
    <edge id="-gneE9" from="gneJ2" to="gneJ8" priority="-1" numLanes="4" speed="13.89">
        <lane index="0" allow="pedestrian" width="2.00"/>
        <lane index="1" allow="bicycle" width="2.00"/>
        <lane index="2" disallow="pedestrian"/>
        <lane index="3" disallow="pedestrian"/>
    </edge>
    <edge id="gneE0" from="gneJ0" to="gneJ1" priority="-1" numLanes="5" speed="13.89">
        <lane index="0" allow="pedestrian" width="2.00"/>
        <lane index="1" allow="bicycle" width="2.00"/>
        <lane index="2" disallow="pedestrian"/>
        <lane index="3" disallow="pedestrian"/>
        <lane index="4" disallow="pedestrian"/>
    </edge>
    <edge id="gneE1" from="gneJ2" to="gneJ1" priority="-1" numLanes="5" speed="13.89">
        <lane index="0" allow="pedestrian" width="2.00"/>
        <lane index="1" allow="bicycle" width="2.00"/>
        <lane index="2" disallow="pedestrian"/>
        <lane index="3" disallow="pedestrian"/>
        <lane index="4" disallow="pedestrian"/>
    </edge>
    <edge id="gneE10" from="gneJ8" to="gneJ3" priority="-1" numLanes="4" speed="13.89">
        <lane index="0" allow="pedestrian" width="2.00"/>
        <lane index="1" allow="bicycle" width="2.00"/>
        <lane index="2" disallow="pedestrian"/>
        <lane index="3" disallow="pedestrian"/>
    </edge>
    <edge id="gneE15" from="gneJ6" to="gneJ4" priority="-1" numLanes="4" speed="13.89">
        <lane index="0" allow="pedestrian" width="2.00"/>
        <lane index="1" allow="bicycle" width="2.00"/>
        <lane index="2" disallow="pedestrian"/>
        <lane index="3" disallow="pedestrian"/>
    </edge>
    <edge id="gneE16" from="gneJ13" to="gneJ0" priority="-1" numLanes="4" speed="13.89">
        <lane index="0" allow="pedestrian" width="2.00"/>
        <lane index="1" allow="bicycle" width="2.00"/>
        <lane index="2" disallow="pedestrian"/>
        <lane index="3" disallow="pedestrian"/>
    </edge>
    <edge id="gneE17" from="gneJ3" to="gneJ13" priority="-1" numLanes="4" speed="13.89">
        <lane index="0" allow="pedestrian" width="2.00"/>
        <lane index="1" allow="bicycle" width="2.00"/>
        <lane index="2" disallow="pedestrian"/>
        <lane index="3" disallow="pedestrian"/>
    </edge>
    <edge id="gneE2" from="gneJ3" to="gneJ1" priority="-1" numLanes="5" speed="13.89">
        <lane index="0" allow="pedestrian" width="2.00"/>
        <lane index="1" allow="bicycle" width="2.00"/>
        <lane index="2" disallow="pedestrian"/>
        <lane index="3" disallow="pedestrian"/>
        <lane index="4" disallow="pedestrian"/>
    </edge>
    <edge id="gneE3" from="gneJ4" to="gneJ1" priority="-1" numLanes="5" speed="13.89">
        <lane index="0" allow="pedestrian" width="2.00"/>
        <lane index="1" allow="bicycle" width="2.00"/>
        <lane index="2" disallow="pedestrian"/>
        <lane index="3" disallow="pedestrian"/>
        <lane index="4" disallow="pedestrian"/>
    </edge>
    <edge id="gneE4" from="gneJ5" to="gneJ0" priority="-1" numLanes="5" speed="13.89">
        <lane index="0" allow="pedestrian" width="2.00"/>
        <lane index="1" allow="bicycle" width="2.00"/>
        <lane index="2" disallow="pedestrian"/>
        <lane index="3" disallow="pedestrian"/>
        <lane index="4" disallow="pedestrian"/>
    </edge>
    <edge id="gneE5" from="gneJ6" to="gneJ5" priority="-1" numLanes="4" speed="13.89">
        <lane index="0" allow="pedestrian" width="2.00"/>
        <lane index="1" allow="bicycle" width="2.00"/>
        <lane index="2" disallow="pedestrian"/>
        <lane index="3" disallow="pedestrian"/>
    </edge>
    <edge id="gneE7" from="gneJ7" to="gneJ4" priority="-1" numLanes="4" speed="13.89">
        <lane index="0" allow="pedestrian" width="2.00"/>
        <lane index="1" allow="bicycle" width="2.00"/>
        <lane index="2" disallow="pedestrian"/>
        <lane index="3" disallow="pedestrian"/>
    </edge>
    <edge id="gneE8" from="gneJ7" to="gneJ2" priority="-1" numLanes="4" speed="13.89">
        <lane index="0" allow="pedestrian" width="2.00"/>
        <lane index="1" allow="bicycle" width="2.00"/>
        <lane index="2" disallow="pedestrian"/>
        <lane index="3" disallow="pedestrian"/>
    </edge>
    <edge id="gneE9" from="gneJ8" to="gneJ2" priority="-1" numLanes="4" speed="13.89">
        <lane index="0" allow="pedestrian" width="2.00"/>
        <lane index="1" allow="bicycle" width="2.00"/>
        <lane index="2" disallow="pedestrian"/>
        <lane index="3" disallow="pedestrian"/>
    </edge>
</edges>
