<?xml version="1.0" encoding="UTF-8"?>

<!-- generated on 2021-11-30 08:00:14 by Eclipse SUMO netconvert Version 1.11.0
<configuration xmlns:xsi="http://www.w3.org/2001/XMLSchema-instance" xsi:noNamespaceSchemaLocation="http://sumo.dlr.de/xsd/netconvertConfiguration.xsd">

    <input>
        <sumo-net-file value="roadnet1.net.xml"/>
    </input>

    <output>
        <plain-output-prefix value="plain"/>
    </output>

    <projection>
        <proj.plain-geo value="true"/>
    </projection>

    <processing>
        <geometry.min-radius.fix.railways value="false"/>
        <geometry.max-grade.fix value="false"/>
        <offset.disable-normalization value="true"/>
        <lefthand value="false"/>
    </processing>

    <junctions>
        <no-turnarounds value="true"/>
        <junctions.corner-detail value="5"/>
        <junctions.limit-turn-speed value="5.5"/>
        <rectangular-lane-cut value="false"/>
    </junctions>

    <pedestrian>
        <walkingareas value="false"/>
    </pedestrian>

    <report>
        <aggregate-warnings value="5"/>
    </report>

</configuration>
-->

<tlLogics version="1.9" xmlns:xsi="http://www.w3.org/2001/XMLSchema-instance" xsi:noNamespaceSchemaLocation="http://sumo.dlr.de/xsd/tllogic_file.xsd">
    <tlLogic id="gneJ0" type="static" programID="0" offset="0">
        <phase duration="33" state="GrGGrrrrrrrrgGgGGGrGr"/>
        <phase duration="3"  state="yyyyrrrrrrrryyyyyyrrr"/>
        <phase duration="20" state="rGrrGGGrGrrrrrrrrrrrG"/>
        <phase duration="3"  state="yyrryyrrrrrrrrrrrrrrr"/>
        <phase duration="20" state="rrrrrrrrrrGGGrGrrrGrr"/>
        <phase duration="3"  state="rrrrrrrrrryyyryrrrrrr"/>
    </tlLogic>
    <tlLogic id="gneJ1" type="static" programID="0" offset="0">
        <phase duration="37" state="gGrgGGGrgrrgrrrrgGrgGGGrgrrgrrrrrGrG"/>
        <phase duration="3"  state="gyrgyyyrgrrgrrrrgyrgyyyrgrrgrrrrrrrr"/>
        <phase duration="22" state="GrrGrrrGGrrGrrrrGrrGrrrGGrrGrrrrrrrr"/>
        <phase duration="3"  state="yrryrrryyrryrrrryrryrrryyrryrrrrrrrr"/>
        <phase duration="37" state="grrgrrrrgGggGGGrgrrgrrrrgGggGGGrGrGr"/>
        <phase duration="3"  state="grrgrrrrgyygyyyrgrrgrrrrgyygyyyrrrrr"/>
        <phase duration="22" state="GrrGrrrrGrrGrrrGGrrGrrrrGrrGrrrGrrrr"/>
        <phase duration="3"  state="grrgrrrrgrrgrrrygrrgrrrrgrrgrrryrrrr"/>
    </tlLogic>
    <tlLogic id="gneJ2" type="static" programID="0" offset="0">
        <phase duration="33" state="rrrrrrgGgGGGrGrrGrr"/>
        <phase duration="3"  state="rrrrrryyyyyyryrrrrr"/>
        <phase duration="20" state="GrGGrrrrrrrrGrGGrGr"/>
        <phase duration="3"  state="yryyrrrrrrrryryyrrr"/>
        <phase duration="32" state="rGrrGGGrGrrrrrrrrrG"/>
        <phase duration="3"  state="ryrryyyryrrrrrrrrrr"/>
    </tlLogic>
    <tlLogic id="gneJ3" type="static" programID="0" offset="0">
        <phase duration="37" state="gGgGGGrGGrrrrrrrrrrG"/>
        <phase duration="3"  state="yyyyyyyyyyyrrrrrrrrr"/>
        <phase duration="22" state="rrrrrrGrrGGGrGGrrGrr"/>
        <phase duration="3"  state="rrrrrryrryyyryyrrrrr"/>
        <phase duration="37" state="GrGrrrrrrrrrgrrggrGr"/>
        <phase duration="3"  state="yryrrrrrrrrryrryyrrr"/>
    </tlLogic>
    <tlLogic id="gneJ4" type="static" programID="0" offset="0">
        <phase duration="33" state="GrGrrrrrrrrgGgGGrGr"/>
        <phase duration="3"  state="yyyYYrrrrrryyyyyrrr"/>
        <phase duration="20" state="rGrGGGrGGrrrrrrrrrG"/>
        <phase duration="3"  state="ryryyyryyrrrrrrrrrr"/>
        <phase duration="32" state="rrrrrrGrrGGGrGrrGrr"/>
        <phase duration="3"  state="rrrrrryrryyyryrrrrr"/>
    </tlLogic>

    <connection from="-gneE0" to="-gneE16" fromLane="1" toLane="1" tl="gneJ0" linkIndex="12"/>
    <connection from="-gneE0" to="-gneE4" fromLane="1" toLane="1" tl="gneJ0" linkIndex="13"/>
    <connection from="-gneE0" to="-gneE16" fromLane="2" toLane="2" tl="gneJ0" linkIndex="14"/>
    <connection from="-gneE0" to="-gneE4" fromLane="2" toLane="2" tl="gneJ0" linkIndex="15"/>
    <connection from="-gneE0" to="-gneE4" fromLane="3" toLane="3" tl="gneJ0" linkIndex="16"/>
    <connection from="-gneE0" to="-gneE4" fromLane="4" toLane="4" tl="gneJ0" linkIndex="17"/>
    <connection from="-gneE1" to="-gneE8" fromLane="1" toLane="1" tl="gneJ2" linkIndex="0"/>
    <connection from="-gneE1" to="-gneE9" fromLane="1" toLane="1" tl="gneJ2" linkIndex="1"/>
    <connection from="-gneE1" to="-gneE8" fromLane="2" toLane="2" tl="gneJ2" linkIndex="2"/>
    <connection from="-gneE1" to="-gneE8" fromLane="3" toLane="3" tl="gneJ2" linkIndex="3"/>
    <connection from="-gneE1" to="-gneE9" fromLane="4" toLane="2" tl="gneJ2" linkIndex="4"/>
    <connection from="-gneE1" to="-gneE9" fromLane="4" toLane="3" tl="gneJ2" linkIndex="5"/>
    <connection from="-gneE17" to="gneE2" fromLane="1" toLane="1" tl="gneJ3" linkIndex="0"/>
    <connection from="-gneE17" to="-gneE10" fromLane="1" toLane="1" tl="gneJ3" linkIndex="1"/>
    <connection from="-gneE17" to="gneE2" fromLane="2" toLane="2" tl="gneJ3" linkIndex="2"/>
    <connection from="-gneE17" to="-gneE10" fromLane="2" toLane="2" tl="gneJ3" linkIndex="3"/>
    <connection from="-gneE17" to="-gneE10" fromLane="3" toLane="3" tl="gneJ3" linkIndex="4"/>
    <connection from="-gneE2" to="-gneE10" fromLane="1" toLane="1" tl="gneJ3" linkIndex="11"/>
    <connection from="-gneE2" to="gneE17" fromLane="1" toLane="1" tl="gneJ3" linkIndex="12"/>
    <connection from="-gneE2" to="-gneE10" fromLane="2" toLane="2" tl="gneJ3" linkIndex="13"/>
    <connection from="-gneE2" to="-gneE10" fromLane="3" toLane="3" tl="gneJ3" linkIndex="14"/>
    <connection from="-gneE2" to="gneE17" fromLane="4" toLane="2" tl="gneJ3" linkIndex="15"/>
    <connection from="-gneE2" to="gneE17" fromLane="4" toLane="3" tl="gneJ3" linkIndex="16"/>
    <connection from="-gneE3" to="-gneE15" fromLane="1" toLane="1" tl="gneJ4" linkIndex="5"/>
    <connection from="-gneE3" to="-gneE7" fromLane="1" toLane="1" tl="gneJ4" linkIndex="6"/>
    <connection from="-gneE3" to="-gneE15" fromLane="2" toLane="2" tl="gneJ4" linkIndex="7"/>
    <connection from="-gneE3" to="-gneE15" fromLane="3" toLane="3" tl="gneJ4" linkIndex="8"/>
    <connection from="-gneE3" to="-gneE7" fromLane="4" toLane="2" tl="gneJ4" linkIndex="9"/>
    <connection from="-gneE3" to="-gneE7" fromLane="4" toLane="3" tl="gneJ4" linkIndex="10"/>
    <connection from="gneE0" to="-gneE3" fromLane="1" toLane="1" tl="gneJ1" linkIndex="0"/>
    <connection from="gneE0" to="-gneE1" fromLane="1" toLane="1" tl="gneJ1" linkIndex="1"/>
    <connection from="gneE0" to="-gneE3" fromLane="2" toLane="2" tl="gneJ1" linkIndex="3"/>
    <connection from="gneE0" to="-gneE1" fromLane="2" toLane="2" tl="gneJ1" linkIndex="4"/>
    <connection from="gneE0" to="-gneE1" fromLane="3" toLane="3" tl="gneJ1" linkIndex="5"/>
    <connection from="gneE0" to="-gneE2" fromLane="4" toLane="4" tl="gneJ1" linkIndex="7"/>
    <connection from="gneE1" to="-gneE2" fromLane="1" toLane="1" tl="gneJ1" linkIndex="16"/>
    <connection from="gneE1" to="-gneE0" fromLane="1" toLane="1" tl="gneJ1" linkIndex="17"/>
    <connection from="gneE1" to="-gneE2" fromLane="2" toLane="2" tl="gneJ1" linkIndex="19"/>
    <connection from="gneE1" to="-gneE0" fromLane="2" toLane="2" tl="gneJ1" linkIndex="20"/>
    <connection from="gneE1" to="-gneE0" fromLane="3" toLane="3" tl="gneJ1" linkIndex="21"/>
    <connection from="gneE1" to="-gneE3" fromLane="4" toLane="4" tl="gneJ1" linkIndex="23"/>
    <connection from="gneE10" to="gneE17" fromLane="1" toLane="1" tl="gneJ3" linkIndex="5"/>
    <connection from="gneE10" to="gneE2" fromLane="1" toLane="1" tl="gneJ3" linkIndex="6"/>
    <connection from="gneE10" to="gneE17" fromLane="2" toLane="2" tl="gneJ3" linkIndex="7"/>
    <connection from="gneE10" to="gneE2" fromLane="3" toLane="3" tl="gneJ3" linkIndex="9"/>
    <connection from="gneE10" to="gneE2" fromLane="3" toLane="4" tl="gneJ3" linkIndex="10"/>
    <connection from="gneE15" to="-gneE7" fromLane="1" toLane="1" tl="gneJ4" linkIndex="0"/>
    <connection from="gneE15" to="gneE3" fromLane="1" toLane="1" tl="gneJ4" linkIndex="1"/>
    <connection from="gneE15" to="-gneE7" fromLane="2" toLane="2" tl="gneJ4" linkIndex="2"/>
    <connection from="gneE15" to="gneE3" fromLane="3" toLane="3" tl="gneJ4" linkIndex="3"/>
    <connection from="gneE15" to="gneE3" fromLane="3" toLane="4" tl="gneJ4" linkIndex="4"/>
    <connection from="gneE16" to="-gneE4" fromLane="1" toLane="1" tl="gneJ0" linkIndex="6"/>
    <connection from="gneE16" to="gneE0" fromLane="1" toLane="1" tl="gneJ0" linkIndex="7"/>
    <connection from="gneE16" to="-gneE4" fromLane="2" toLane="2" tl="gneJ0" linkIndex="8"/>
    <connection from="gneE16" to="gneE0" fromLane="3" toLane="3" tl="gneJ0" linkIndex="10"/>
    <connection from="gneE16" to="gneE0" fromLane="3" toLane="4" tl="gneJ0" linkIndex="11"/>
    <connection from="gneE2" to="-gneE0" fromLane="1" toLane="1" tl="gneJ1" linkIndex="8"/>
    <connection from="gneE2" to="-gneE3" fromLane="1" toLane="1" tl="gneJ1" linkIndex="9"/>
    <connection from="gneE2" to="-gneE0" fromLane="2" toLane="2" tl="gneJ1" linkIndex="11"/>
    <connection from="gneE2" to="-gneE3" fromLane="2" toLane="2" tl="gneJ1" linkIndex="12"/>
    <connection from="gneE2" to="-gneE3" fromLane="3" toLane="3" tl="gneJ1" linkIndex="13"/>
    <connection from="gneE2" to="-gneE1" fromLane="4" toLane="4" tl="gneJ1" linkIndex="15"/>
    <connection from="gneE3" to="-gneE1" fromLane="1" toLane="1" tl="gneJ1" linkIndex="24"/>
    <connection from="gneE3" to="-gneE2" fromLane="1" toLane="1" tl="gneJ1" linkIndex="25"/>
    <connection from="gneE3" to="-gneE1" fromLane="2" toLane="2" tl="gneJ1" linkIndex="27"/>
    <connection from="gneE3" to="-gneE2" fromLane="2" toLane="2" tl="gneJ1" linkIndex="28"/>
    <connection from="gneE3" to="-gneE2" fromLane="3" toLane="3" tl="gneJ1" linkIndex="29"/>
    <connection from="gneE3" to="-gneE0" fromLane="4" toLane="4" tl="gneJ1" linkIndex="31"/>
    <connection from="gneE4" to="gneE0" fromLane="1" toLane="1" tl="gneJ0" linkIndex="0"/>
    <connection from="gneE4" to="-gneE16" fromLane="1" toLane="1" tl="gneJ0" linkIndex="1"/>
    <connection from="gneE4" to="gneE0" fromLane="2" toLane="2" tl="gneJ0" linkIndex="2"/>
    <connection from="gneE4" to="gneE0" fromLane="3" toLane="3" tl="gneJ0" linkIndex="3"/>
    <connection from="gneE4" to="-gneE16" fromLane="4" toLane="2" tl="gneJ0" linkIndex="4"/>
    <connection from="gneE4" to="-gneE16" fromLane="4" toLane="3" tl="gneJ0" linkIndex="5"/>
    <connection from="gneE7" to="gneE3" fromLane="1" toLane="1" tl="gneJ4" linkIndex="11"/>
    <connection from="gneE7" to="-gneE15" fromLane="1" toLane="1" tl="gneJ4" linkIndex="12"/>
    <connection from="gneE7" to="gneE3" fromLane="2" toLane="2" tl="gneJ4" linkIndex="13"/>
    <connection from="gneE7" to="-gneE15" fromLane="2" toLane="2" tl="gneJ4" linkIndex="14"/>
    <connection from="gneE7" to="-gneE15" fromLane="3" toLane="3" tl="gneJ4" linkIndex="15"/>
    <connection from="gneE8" to="-gneE9" fromLane="1" toLane="1" tl="gneJ2" linkIndex="11"/>
    <connection from="gneE8" to="gneE1" fromLane="1" toLane="1" tl="gneJ2" linkIndex="12"/>
    <connection from="gneE8" to="-gneE9" fromLane="2" toLane="2" tl="gneJ2" linkIndex="13"/>
    <connection from="gneE8" to="gneE1" fromLane="3" toLane="3" tl="gneJ2" linkIndex="14"/>
    <connection from="gneE8" to="gneE1" fromLane="3" toLane="4" tl="gneJ2" linkIndex="15"/>
    <connection from="gneE9" to="gneE1" fromLane="1" toLane="1" tl="gneJ2" linkIndex="6"/>
    <connection from="gneE9" to="-gneE8" fromLane="1" toLane="1" tl="gneJ2" linkIndex="7"/>
    <connection from="gneE9" to="gneE1" fromLane="2" toLane="2" tl="gneJ2" linkIndex="8"/>
    <connection from="gneE9" to="-gneE8" fromLane="2" toLane="2" tl="gneJ2" linkIndex="9"/>
    <connection from="gneE9" to="-gneE8" fromLane="3" toLane="3" tl="gneJ2" linkIndex="10"/>
</tlLogics>
