<?xml version="1.0" encoding="UTF-8"?>

<!-- generated on 2022-01-05 11:48:51 by Eclipse SUMO netedit Version 1.11.0
-->

<routes xmlns:xsi="http://www.w3.org/2001/XMLSchema-instance" xsi:noNamespaceSchemaLocation="http://sumo.dlr.de/xsd/routes_file.xsd">
    <flow id="flow_0" begin="0.00" from="-gneE1" to="gneE2" via="-gneE9 gneE10" end="20.00" vehsPerHour="500.00"/>
    <flow id="flow_1" begin="0.00" from="-gneE2" to="gneE1" via="-gneE10 gneE9" end="20.00" vehsPerHour="500.00"/>
    <personFlow id="personFlow_0" begin="0.00" end="20.00" personsPerHour="500.00">
        <personTrip from="-gneE2" to="-gneE2"/>
    </personFlow>
    <trip id="vehicle_0" type="DEFAULT_BIKETYPE" depart="0.00" from="gneE9" to="gneE1"/>
</routes>
